    21
 geometry
 B                     0.00000000     0.00000000    -1.23806623
 N                    -1.25208824     0.00000000    -0.28783767
 C                    -2.53470111     0.00000000    -0.65948523
 C                    -3.37247481     0.00000000     0.47192034
 C                    -2.54419721     0.00000000     1.57958134
 C                    -1.21219523     0.00000000     1.10137464
 C                     0.00000000     0.00000000     1.77400062
 C                     1.21219523     0.00000000     1.10137464
 N                     1.25208824     0.00000000    -0.28783767
 C                     2.53470111     0.00000000    -0.65948523
 C                     3.37247481     0.00000000     0.47192034
 C                     2.54419721     0.00000000     1.57958134
 F                     0.00000000     1.14251082    -2.02065396
 F                     0.00000000    -1.14251082    -2.02065396
 H                    -2.80639249     0.00000000    -1.70326931
 H                    -4.44947948     0.00000000     0.45624144
 H                    -2.83317433     0.00000000     2.61837210
 H                     0.00000000     0.00000000     2.85632161
 H                     2.80639249     0.00000000    -1.70326931
 H                     4.44947948     0.00000000     0.45624144
 H                     2.83317433     0.00000000     2.61837210
