    21
 geometry
 B                     0.00000000     0.00000000    -1.22559898
 N                    -1.25127289     0.00000000    -0.28638763
 C                    -2.53807594     0.00000000    -0.67067357
 C                    -3.38620923     0.00000000     0.46340514
 C                    -2.55791499     0.00000000     1.58411576
 C                    -1.21699999     0.00000000     1.10852834
 C                     0.00000000     0.00000000     1.78871957
 C                     1.21699999     0.00000000     1.10852834
 N                     1.25127289     0.00000000    -0.28638763
 C                     2.53807594     0.00000000    -0.67067357
 C                     3.38620923     0.00000000     0.46340514
 C                     2.55791499     0.00000000     1.58411576
 F                     0.00000000     1.13971034    -2.01688317
 F                     0.00000000    -1.13971034    -2.01688317
 H                    -2.80918101     0.00000000    -1.72628695
 H                    -4.47453178     0.00000000     0.44162593
 H                    -2.85245870     0.00000000     2.63268128
 H                     0.00000000     0.00000000     2.88136562
 H                     2.80918101     0.00000000    -1.72628695
 H                     4.47453178     0.00000000     0.44162593
 H                     2.85245870     0.00000000     2.63268128
