    21
 geometry
 B                     0.00000000     0.00000000    -1.23937872
 N                    -1.25204670     0.00000000    -0.28847563
 C                    -2.53508116     0.00000000    -0.65880365
 C                    -3.37335890     0.00000000     0.47259864
 C                    -2.54443101     0.00000000     1.57971294
 C                    -1.21252449     0.00000000     1.10084589
 C                     0.00000000     0.00000000     1.77284055
 C                     1.21252449     0.00000000     1.10084589
 N                     1.25204670     0.00000000    -0.28847563
 C                     2.53508116     0.00000000    -0.65880365
 C                     3.37335890     0.00000000     0.47259864
 C                     2.54443101     0.00000000     1.57971294
 F                     0.00000000     1.14178886    -2.02117126
 F                     0.00000000    -1.14178886    -2.02117126
 H                    -2.80691848     0.00000000    -1.70242197
 H                    -4.45036468     0.00000000     0.45736232
 H                    -2.83335398     0.00000000     2.61843905
 H                     0.00000000     0.00000000     2.85510886
 H                     2.80691848     0.00000000    -1.70242197
 H                     4.45036468     0.00000000     0.45736232
 H                     2.83335398     0.00000000     2.61843905
