    21
 geometry
 B                     0.00000000     0.00000000    -1.22864936
 N                    -1.24916159     0.00000000    -0.28798959
 C                    -2.53305624     0.00000000    -0.66119713
 C                    -3.37227236     0.00000000     0.47043498
 C                    -2.54581789     0.00000000     1.57917963
 C                    -1.21101494     0.00000000     1.10070668
 C                     0.00000000     0.00000000     1.77662555
 C                     1.21101494     0.00000000     1.10070668
 N                     1.24916159     0.00000000    -0.28798959
 C                     2.53305624     0.00000000    -0.66119713
 C                     3.37227236     0.00000000     0.47043498
 C                     2.54581789     0.00000000     1.57917963
 F                     0.00000000     1.14278956    -2.01849736
 F                     0.00000000    -1.14278956    -2.01849736
 H                    -2.80411891     0.00000000    -1.70537003
 H                    -4.44974066     0.00000000     0.45350775
 H                    -2.83443785     0.00000000     2.61838307
 H                     0.00000000     0.00000000     2.85845118
 H                     2.80411891     0.00000000    -1.70537003
 H                     4.44974066     0.00000000     0.45350775
 H                     2.83443785     0.00000000     2.61838307
