21

B -0.0045660265578434415 -10.093757221799986 0.6192378357346807
N -2.438804870580577 -8.084876042870643 0.5246855197256849
C -4.95441951295591 -8.726174466279161 0.5247236836385656
C -6.50933356378935 -6.509806750435682 0.44273411028464743
C -4.898723512099142 -4.428270789550778 0.39129563338595963
C -2.338501603959957 -5.367164876384028 0.44000392981919595
C 0.00019945202153291892 -4.090340772578819 0.40271779305453553
C 2.33689181085644 -5.37046141692607 0.4402160845061708
N 2.433226205088055 -8.088463448175068 0.5243836291314303
C 4.94775485884558 -8.733457319341714 0.5256242254648088
C 6.505846665218395 -6.519309785286177 0.4449636510607001
C 4.898527537078482 -4.43539935536016 0.39270294699854585
F -0.005698589534763875 -11.524999952579346 -1.5006628538229259
F -0.004945851674982752 -11.3227747488312 2.863531826618477
H -5.541567536727511 -10.716987917244184 0.5818176412849644
H -8.575697291611306 -6.501396288255367 0.42421879076601615
H -5.4235215370627206 -2.4279309483320572 0.32267301651867497
H 0.0016206602093707218 -2.0093645871316226 0.3346121189556998
H 5.53189968999984 -10.725098845027496 0.5825710987903598
H 8.572167781069817 -6.5138398350043705 0.4276024765039559
H 5.426476674383975 -2.435921290840796 0.32448438163364873
