 xtb: 6.6.1 (8d0f1dd)
          04082419303D

  3  2  0     0  0            999 V2000
    0.0000    0.0000    0.1173 O   0  0  0  0  0  0  0  0  0  0  0  0
    0.0000    0.7572   -0.4692 H   0  0  0  0  0  0  0  0  0  0  0  0
    0.0000   -0.7572   -0.4692 H   0  0  0  0  0  0  0  0  0  0  0  0
  1  2  1  0  0  0  0
  1  3  1  0  0  0  0
M  END
