102

C      6.751293    0.140187    2.822317
C      5.486308    0.113189    3.396005
C      4.332720    0.183907    2.609032
C      4.488392    0.247792    1.214840
C      5.749355    0.305636    0.616686
C      6.899146    0.231541    1.435415
C      5.554985    0.409742   -0.796998
C      6.429604    0.509874   -1.898568
C      5.911712    0.591853   -3.196411
C      4.538358    0.586052   -3.411799
C      3.650114    0.488250   -2.339010
C      4.181324    0.412224   -1.036980
N      3.552777    0.287502    0.195079
C      2.147228    0.173671    0.350672
C      1.574231   -1.128179    0.344355
C      0.162609   -1.221975    0.303551
C     -0.641957   -0.057569    0.275595
C     -0.035905    1.222718    0.260876
C      1.373420    1.364164    0.305245
C      2.037767    2.730746    0.360867
N      1.849235    3.396876    1.648822
N     -0.841888    2.379532    0.052381
C     -1.604574    3.020408    1.016857
C     -1.751371    2.776278    2.392813
C     -2.623919    3.585479    3.126200
C     -3.315359    4.627104    2.518272
C     -3.135357    4.887193    1.155137
C     -2.265373    4.078283    0.392343
C     -1.847927    4.105720   -0.968437
C     -2.153806    4.941422   -2.060517
C     -1.531027    4.731215   -3.296113
C     -0.626665    3.689821   -3.461136
C     -0.318856    2.835283   -2.400297
C     -0.936066    3.065964   -1.154748
N     -2.058871   -0.182144    0.234277
C     -2.839056   -0.091202   -0.913121
C     -2.495264    0.085539   -2.266276
C     -3.517322    0.135907   -3.219471
C     -4.845465    0.008194   -2.840155
C     -5.180969   -0.200798   -1.499612
C     -4.169086   -0.251834   -0.520317
C     -4.184072   -0.453909    0.893755
C     -5.217870   -0.667998    1.831818
C     -4.905874   -0.820103    3.187333
C     -3.584247   -0.769995    3.615900
C     -2.545286   -0.563154    2.706684
C     -2.864233   -0.406277    1.344824
N     -0.416663   -2.478873   -0.030977
C     -0.504222   -2.954570   -1.337463
C     -0.012862   -2.429988   -2.551213
C     -0.286273   -3.122153   -3.734247
C     -1.034037   -4.293738   -3.710177
C     -1.515566   -4.813432   -2.501945
C     -1.234100   -4.142301   -1.293018
C     -1.514755   -4.424335    0.078646
C     -2.191399   -5.480085    0.728652
C     -2.247632   -5.506974    2.126520
C     -1.622680   -4.513078    2.877913
C     -0.951722   -3.455549    2.254671
C     -0.939572   -3.411415    0.850613
C      2.435690   -2.382821    0.407376
N      2.475464   -2.911697    1.762488
H      7.633586    0.086899    3.455643
H      5.390743    0.052848    4.476931
H      3.350879    0.183141    3.070829
H      7.890555    0.270270    0.993441
H      7.503561    0.505154   -1.742579
H      6.595275    0.646746   -4.040987
H      4.151870    0.633889   -4.426274
H      2.580511    0.467613   -2.512700
H      1.673140    3.354846   -0.452313
H      3.113644    2.670320    0.194554
H      2.323011    4.295451    1.603801
H      0.858149    3.625651    1.778276
H     -1.202720    1.984442    2.888110
H     -2.757538    3.402898    4.191000
H     -3.998197    5.241496    3.100968
H     -3.662530    5.716432    0.689010
H     -2.872002    5.744519   -1.952762
H     -1.757263    5.388126   -4.135184
H     -0.153882    3.535715   -4.429600
H      0.369559    2.007576   -2.550074
H     -1.462436    0.170027   -2.578632
H     -3.262571    0.271168   -4.269389
H     -5.629174    0.060398   -3.588994
H     -6.219635   -0.320679   -1.214446
H     -6.254193   -0.711167    1.503006
H     -5.707960   -0.973440    3.906043
H     -3.359928   -0.900420    4.671669
H     -1.520196   -0.511272    3.054387
H      0.559050   -1.506476   -2.580000
H      0.085089   -2.737738   -4.682776
H     -1.231904   -4.827941   -4.636523
H     -2.090762   -5.735097   -2.492890
H     -2.664539   -6.266834    0.146480
H     -2.764962   -6.322335    2.627401
H     -1.648889   -4.560867    3.964227
H     -0.451109   -2.691567    2.837223
H      2.052898   -3.154932   -0.265619
H      3.462716   -2.206080    0.056753
H      2.947520   -3.808840    1.762674
H      3.058052   -2.293061    2.323489
